
#======================================================================
# CRYSTAL DATA
#----------------------------------------------------------------------
data_VESTA_phase_1

_chemical_name_common                  'Repassivated'
_cell_length_a                         6.055700
_cell_length_b                         6.688300
_cell_length_c                         5.897600
_cell_angle_alpha                      92.699997
_cell_angle_beta                       90.900002
_cell_angle_gamma                      92.500000
_cell_volume                           238.336567
_space_group_name_H-M_alt              'P 1'
_space_group_IT_number                 1

loop_
_space_group_symop_operation_xyz
   'x, y, z'

loop_
   _atom_site_label
   _atom_site_occupancy
   _atom_site_fract_x
   _atom_site_fract_y
   _atom_site_fract_z
   _atom_site_adp_type
   _atom_site_B_iso_or_equiv
   _atom_site_type_symbol
   C1          1.0     0.679820     0.843949     0.148369    Biso  1.000000 C
   C2          1.0     0.796425     0.135448     0.660572    Biso  1.000000 C
   C3          1.0     0.253873     0.804887     0.611342    Biso  1.000000 C
   N1          1.0     0.155971     0.750883     0.827863    Biso  1.000000 N
   N2          1.0     0.752485     0.646868     0.211534    Biso  1.000000 N
   N3          1.0     0.598234     0.258806     0.674470    Biso  1.000000 N
   O1          1.0     0.752111     0.625859     0.659661    Biso  1.000000 O
   I1          1.0     0.248267     0.273309     0.165139    Biso  1.000000 I
   H1          1.0     0.787349     0.959041     0.227028    Biso  1.000000 H
   H2          1.0     0.514483     0.863042     0.204237    Biso  1.000000 H
   H3          1.0     0.684747     0.853193    -0.032127    Biso  1.000000 H
   H4          1.0     0.840964     0.091416     0.826673    Biso  1.000000 H
   H5          1.0     0.930864     0.221361     0.592584    Biso  1.000000 H
   H6          1.0     0.760064     0.004800     0.552459    Biso  1.000000 H
   H7          1.0     0.193569     0.700848     0.478950    Biso  1.000000 H
   H8          1.0     0.429998     0.800320     0.624419    Biso  1.000000 H
   H9          1.0     0.209313     0.952803     0.573065    Biso  1.000000 H
   H10         1.0     0.198450     0.609881     0.864351    Biso  1.000000 H
   H11         1.0    -0.011923     0.755237     0.815398    Biso  1.000000 H
   H12         1.0     0.747788     0.638057     0.383597    Biso  1.000000 H
   H13         1.0     0.910098     0.628667     0.158277    Biso  1.000000 H
   H14         1.0     0.632895     0.383349     0.777533    Biso  1.000000 H
   H15         1.0     0.470077     0.176908     0.739282    Biso  1.000000 H
   H16         1.0     0.659471     0.530199     0.123259    Biso  1.000000 H
   H17         1.0     0.214083     0.845000     0.964979    Biso  1.000000 H
   H18         1.0     0.556205     0.289307     0.512124    Biso  1.000000 H
