
#======================================================================
# CRYSTAL DATA
#----------------------------------------------------------------------
data_VESTA_phase_1

_chemical_name_common                  ''
_cell_length_a                         6.055700
_cell_length_b                         6.688300
_cell_length_c                         5.897600
_cell_angle_alpha                      92.699997
_cell_angle_beta                       90.900002
_cell_angle_gamma                      92.500000
_cell_volume                           238.336567
_space_group_name_H-M_alt              'P 1'
_space_group_IT_number                 1

loop_
_space_group_symop_operation_xyz
   'x, y, z'

loop_
   _atom_site_label
   _atom_site_occupancy
   _atom_site_fract_x
   _atom_site_fract_y
   _atom_site_fract_z
   _atom_site_adp_type
   _atom_site_B_iso_or_equiv
   _atom_site_type_symbol
   C1          1.0     0.689517     0.649860     0.174569    Biso  1.000000 C
   C2          1.0     0.598922     0.197651     0.741633    Biso  1.000000 C
   C3          1.0     0.126408     0.721075     0.731075    Biso  1.000000 C
   N1          1.0     0.361785     0.778949     0.773478    Biso  1.000000 N
   N2          1.0     0.781653     0.792860     0.352629    Biso  1.000000 N
   N3          1.0     0.786437     0.347412     0.738734    Biso  1.000000 N
   O1          1.0     0.719578     0.774828     0.738068    Biso  1.000000 O
   I1          1.0     0.220346     0.245338     0.236971    Biso  1.000000 I
   H1          1.0     0.688358     0.720049     0.015249    Biso  1.000000 H
   H2          1.0     0.524199     0.604046     0.216337    Biso  1.000000 H
   H3          1.0     0.789056     0.521599     0.162757    Biso  1.000000 H
   H4          1.0     0.641563     0.063488     0.649654    Biso  1.000000 H
   H5          1.0     0.456417     0.256692     0.663951    Biso  1.000000 H
   H6          1.0     0.563394     0.164642     0.913392    Biso  1.000000 H
   H7          1.0     0.083554     0.590457     0.821720    Biso  1.000000 H
   H8          1.0     0.098165     0.689506     0.553181    Biso  1.000000 H
   H9          1.0     0.026757     0.841278     0.787565    Biso  1.000000 H
   H10         1.0     0.456780     0.664364     0.719627    Biso  1.000000 H
   H11         1.0     0.388708     0.809043     0.943061    Biso  1.000000 H
   H12         1.0     0.686764     0.915126     0.363887    Biso  1.000000 H
   H13         1.0     0.939245     0.836534     0.312814    Biso  1.000000 H
   H14         1.0     0.820305     0.378879     0.575000    Biso  1.000000 H
   H15         1.0     0.922283     0.291131     0.812787    Biso  1.000000 H
   H16         1.0     0.387336     0.915054     0.685310    Biso  1.000000 H
   H17         1.0     0.733858     0.690548     0.469070    Biso  1.000000 H
   H18         1.0     0.729201     0.490033     0.793753    Biso  1.000000 H
