
#======================================================================
# CRYSTAL DATA
#----------------------------------------------------------------------
data_VESTA_phase_1

_chemical_name_common                  'Repass-1'
_cell_length_a                         6.055700
_cell_length_b                         6.688300
_cell_length_c                         5.897600
_cell_angle_alpha                      92.699997
_cell_angle_beta                       90.900002
_cell_angle_gamma                      92.500000
_cell_volume                           238.336567
_space_group_name_H-M_alt              'P 1'
_space_group_IT_number                 1

loop_
_space_group_symop_operation_xyz
   'x, y, z'

loop_
   _atom_site_label
   _atom_site_occupancy
   _atom_site_fract_x
   _atom_site_fract_y
   _atom_site_fract_z
   _atom_site_adp_type
   _atom_site_B_iso_or_equiv
   _atom_site_type_symbol
   C1          1.0     0.669721     0.819529     0.125043    Biso  1.000000 C
   C2          1.0     0.765302     0.116624     0.674080    Biso  1.000000 C
   C3          1.0     0.219425     0.795571     0.608103    Biso  1.000000 C
   N1          1.0     0.194245     0.748335     0.847507    Biso  1.000000 N
   N2          1.0     0.761363     0.655662     0.248750    Biso  1.000000 N
   N3          1.0     0.618821     0.289383     0.685185    Biso  1.000000 N
   O1          1.0     0.746688     0.650686     0.672728    Biso  1.000000 O
   I1          1.0     0.243614     0.268646     0.177112    Biso  1.000000 I
   H1          1.0     0.799658     0.897096     0.039412    Biso  1.000000 H
   H2          1.0     0.594105     0.921448     0.242246    Biso  1.000000 H
   H3          1.0     0.548638     0.759425     0.003351    Biso  1.000000 H
   H4          1.0     0.898691     0.147290     0.562208    Biso  1.000000 H
   H5          1.0     0.672508    -0.014989     0.611945    Biso  1.000000 H
   H6          1.0     0.830129     0.093235     0.840093    Biso  1.000000 H
   H7          1.0     0.061834     0.779875     0.523001    Biso  1.000000 H
   H8          1.0     0.330575     0.694938     0.528735    Biso  1.000000 H
   H9          1.0     0.284192     0.946280     0.598322    Biso  1.000000 H
   H10         1.0     0.876788     0.712958     0.364755    Biso  1.000000 H
   H11         1.0     0.833446     0.558506     0.137024    Biso  1.000000 H
   H12         1.0     0.557026     0.311679     0.526928    Biso  1.000000 H
   H13         1.0     0.707280     0.414845     0.744416    Biso  1.000000 H
   H14         1.0     0.132503     0.604668     0.856831    Biso  1.000000 H
   H15         1.0     0.088289     0.844266     0.923166    Biso  1.000000 H
   H16         1.0     0.352460     0.763803     0.932996    Biso  1.000000 H
   H17         1.0     0.625490     0.575497     0.304349    Biso  1.000000 H
   H18         1.0     0.479414     0.255254     0.780901    Biso  1.000000 H
