
#======================================================================
# CRYSTAL DATA
#----------------------------------------------------------------------
data_VESTA_phase_1

_chemical_name_common                  ''
_cell_length_a                         6.055700
_cell_length_b                         6.688300
_cell_length_c                         5.897600
_cell_angle_alpha                      92.699997
_cell_angle_beta                       90.900002
_cell_angle_gamma                      92.500000
_cell_volume                           238.336567
_space_group_name_H-M_alt              'P 1'
_space_group_IT_number                 1

loop_
_space_group_symop_operation_xyz
   'x, y, z'

loop_
   _atom_site_label
   _atom_site_occupancy
   _atom_site_fract_x
   _atom_site_fract_y
   _atom_site_fract_z
   _atom_site_adp_type
   _atom_site_B_iso_or_equiv
   _atom_site_type_symbol
   C1          1.0     0.763372     0.638678     0.312260    Biso  1.000000 C
   C2          1.0     0.611821     0.337343     0.782157    Biso  1.000000 C
   C3          1.0     0.189892     0.705509     0.826207    Biso  1.000000 C
   N1          1.0     0.344541     0.781837     0.657600    Biso  1.000000 N
   N2          1.0     0.735113     0.856257     0.317061    Biso  1.000000 N
   N3          1.0     0.851659     0.300486     0.770849    Biso  1.000000 N
   O1          1.0     0.703313     0.849314     0.777273    Biso  1.000000 O
   I1          1.0     0.206386     0.231353     0.272887    Biso  1.000000 I
   H1          1.0     0.846671     0.593675     0.160812    Biso  1.000000 H
   H2          1.0     0.604737     0.561938     0.315155    Biso  1.000000 H
   H3          1.0     0.859254     0.602224     0.457323    Biso  1.000000 H
   H4          1.0     0.586740     0.461021     0.899286    Biso  1.000000 H
   H5          1.0     0.524661     0.206465     0.837840    Biso  1.000000 H
   H6          1.0     0.551332     0.371089     0.617492    Biso  1.000000 H
   H7          1.0     0.071718     0.815760     0.865570    Biso  1.000000 H
   H8          1.0     0.279519     0.674005     0.977243    Biso  1.000000 H
   H9          1.0     0.105895     0.571212     0.758507    Biso  1.000000 H
   H10         1.0     0.424613     0.909857     0.722135    Biso  1.000000 H
   H11         1.0     0.259104     0.811869     0.513619    Biso  1.000000 H
   H12         1.0     0.643710     0.891007     0.178777    Biso  1.000000 H
   H13         1.0     0.886335     0.929411     0.314303    Biso  1.000000 H
   H14         1.0     0.909320     0.268318     0.927820    Biso  1.000000 H
   H15         1.0     0.934746     0.425250     0.717768    Biso  1.000000 H
   H16         1.0     0.640414     0.922570     0.437711    Biso  1.000000 H
   H17         1.0     0.438012     0.662721     0.608801    Biso  1.000000 H
   H18         1.0     0.876025     0.179736     0.656218    Biso  1.000000 H
