
#======================================================================
# CRYSTAL DATA
#----------------------------------------------------------------------
data_VESTA_phase_1

_chemical_name_common                  ''
_cell_length_a                         6.055700
_cell_length_b                         6.688300
_cell_length_c                         5.897600
_cell_angle_alpha                      92.699997
_cell_angle_beta                       90.900002
_cell_angle_gamma                      92.500000
_cell_volume                           238.336567
_space_group_name_H-M_alt              'P 1'
_space_group_IT_number                 1

loop_
_space_group_symop_operation_xyz
   'x, y, z'

loop_
   _atom_site_label
   _atom_site_occupancy
   _atom_site_fract_x
   _atom_site_fract_y
   _atom_site_fract_z
   _atom_site_adp_type
   _atom_site_B_iso_or_equiv
   _atom_site_type_symbol
   C1          1.0     0.658183     0.750046     0.108589    Biso  1.000000 C
   C2          1.0     0.688731     0.113561     0.701101    Biso  1.000000 C
   C3          1.0     0.157274     0.767931     0.633997    Biso  1.000000 C
   N1          1.0     0.277734     0.754094     0.851212    Biso  1.000000 N
   N2          1.0     0.780233     0.697611     0.312989    Biso  1.000000 N
   N3          1.0     0.679870     0.335140     0.706609    Biso  1.000000 N
   O1          1.0     0.735843     0.700343     0.698864    Biso  1.000000 O
   I1          1.0     0.234306     0.259324     0.201055    Biso  1.000000 I
   H1          1.0     0.772356     0.801532    -0.014813    Biso  1.000000 H
   H2          1.0     0.547865     0.866022     0.151819    Biso  1.000000 H
   H3          1.0     0.565406     0.620787     0.039838    Biso  1.000000 H
   H4          1.0     0.855978     0.072865     0.726196    Biso  1.000000 H
   H5          1.0     0.627913     0.052279     0.540055    Biso  1.000000 H
   H6          1.0     0.588690     0.055791     0.833083    Biso  1.000000 H
   H7          1.0     0.114105     0.620439     0.564646    Biso  1.000000 H
   H8          1.0     0.260036     0.845442     0.517735    Biso  1.000000 H
   H9          1.0     0.010174     0.847968     0.661818    Biso  1.000000 H
   H10         1.0     0.417959     0.677799     0.824691    Biso  1.000000 H
   H11         1.0     0.179775     0.680207     0.962043    Biso  1.000000 H
   H12         1.0     0.868673     0.820830     0.378525    Biso  1.000000 H
   H13         1.0     0.885394     0.587054     0.271779    Biso  1.000000 H
   H14         1.0     0.775237     0.390208     0.580793    Biso  1.000000 H
   H15         1.0     0.737846     0.393557     0.860129    Biso  1.000000 H
   H16         1.0     0.521007     0.368482     0.680229    Biso  1.000000 H
   H17         1.0     0.319764     0.892056     0.919061    Biso  1.000000 H
   H18         1.0     0.639724     0.635940     0.374127    Biso  1.000000 H
