
#======================================================================
# CRYSTAL DATA
#----------------------------------------------------------------------
data_VESTA_phase_1

_chemical_name_common                  ''
_cell_length_a                         6.055700
_cell_length_b                         6.688300
_cell_length_c                         5.897600
_cell_angle_alpha                      92.699997
_cell_angle_beta                       90.900002
_cell_angle_gamma                      92.500000
_cell_volume                           238.336567
_space_group_name_H-M_alt              'P 1'
_space_group_IT_number                 1

loop_
_space_group_symop_operation_xyz
   'x, y, z'

loop_
   _atom_site_label
   _atom_site_occupancy
   _atom_site_fract_x
   _atom_site_fract_y
   _atom_site_fract_z
   _atom_site_adp_type
   _atom_site_B_iso_or_equiv
   _atom_site_type_symbol
   C1          1.0     0.783878     0.660730     0.358718    Biso  1.000000 C
   C2          1.0     0.642616     0.380046     0.795661    Biso  1.000000 C
   C3          1.0     0.223937     0.711171     0.842951    Biso  1.000000 C
   N1          1.0     0.319000     0.770852     0.627206    Biso  1.000000 N
   N2          1.0     0.715156     0.859087     0.295663    Biso  1.000000 N
   N3          1.0     0.856616     0.279733     0.781555    Biso  1.000000 N
   O1          1.0     0.697891     0.874143     0.790340    Biso  1.000000 O
   I1          1.0     0.201733     0.226691     0.284860    Biso  1.000000 I
   H1          1.0     0.959666     0.664205     0.381547    Biso  1.000000 H
   H2          1.0     0.735279     0.551554     0.226883    Biso  1.000000 H
   H3          1.0     0.706711     0.622064     0.513614    Biso  1.000000 H
   H4          1.0     0.611820     0.423315     0.968873    Biso  1.000000 H
   H5          1.0     0.512232     0.278826     0.731469    Biso  1.000000 H
   H6          1.0     0.649786     0.510195     0.696794    Biso  1.000000 H
   H7          1.0     0.090134     0.804489     0.885539    Biso  1.000000 H
   H8          1.0     0.348271     0.727409     0.974243    Biso  1.000000 H
   H9          1.0     0.164199     0.558171     0.826122    Biso  1.000000 H
   H10         1.0     0.375946     0.916704     0.643248    Biso  1.000000 H
   H11         1.0     0.200474     0.755373     0.502049    Biso  1.000000 H
   H12         1.0     0.788719     0.895945     0.148004    Biso  1.000000 H
   H13         1.0     0.761483     0.963161     0.421336    Biso  1.000000 H
   H14         1.0     0.849780     0.155667     0.875800    Biso  1.000000 H
   H15         1.0     0.980907     0.376225     0.842747    Biso  1.000000 H
   H16         1.0     0.544319     0.856622     0.268188    Biso  1.000000 H
   H17         1.0     0.402725     0.656137     0.561323    Biso  1.000000 H
   H18         1.0     0.886554     0.237611     0.612212    Biso  1.000000 H
