
#======================================================================
# CRYSTAL DATA
#----------------------------------------------------------------------
data_VESTA_phase_1

_chemical_name_common                  ''
_cell_length_a                         6.055700
_cell_length_b                         6.688300
_cell_length_c                         5.897600
_cell_angle_alpha                      92.699997
_cell_angle_beta                       90.900002
_cell_angle_gamma                      92.500000
_cell_volume                           238.336567
_space_group_name_H-M_alt              'P 1'
_space_group_IT_number                 1

loop_
_space_group_symop_operation_xyz
   'x, y, z'

loop_
   _atom_site_label
   _atom_site_occupancy
   _atom_site_fract_x
   _atom_site_fract_y
   _atom_site_fract_z
   _atom_site_adp_type
   _atom_site_B_iso_or_equiv
   _atom_site_type_symbol
   C1          1.0     0.661299     0.712007     0.118689    Biso  1.000000 C
   C2          1.0     0.651517     0.130746     0.714612    Biso  1.000000 C
   C3          1.0     0.136400     0.751446     0.661022    Biso  1.000000 C
   N1          1.0     0.314737     0.761613     0.834862    Biso  1.000000 N
   N2          1.0     0.785943     0.727721     0.335156    Biso  1.000000 N
   N3          1.0     0.716014     0.347276     0.717318    Biso  1.000000 N
   O1          1.0     0.730421     0.725172     0.711931    Biso  1.000000 O
   I1          1.0     0.229654     0.254661     0.213028    Biso  1.000000 I
   H1          1.0     0.744063     0.801836    -0.002100    Biso  1.000000 H
   H2          1.0     0.498434     0.763699     0.144489    Biso  1.000000 H
   H3          1.0     0.650670     0.559048     0.056109    Biso  1.000000 H
   H4          1.0     0.719140     0.066772     0.861943    Biso  1.000000 H
   H5          1.0     0.713731     0.057214     0.565313    Biso  1.000000 H
   H6          1.0     0.475136     0.111995     0.714627    Biso  1.000000 H
   H7          1.0    -0.013342     0.694272     0.732824    Biso  1.000000 H
   H8          1.0     0.180797     0.654470     0.521183    Biso  1.000000 H
   H9          1.0     0.112340     0.898214     0.602911    Biso  1.000000 H
   H10         1.0     0.337673     0.621702     0.890257    Biso  1.000000 H
   H11         1.0     0.272414     0.854057     0.968167    Biso  1.000000 H
   H12         1.0     0.796074     0.873534     0.394812    Biso  1.000000 H
   H13         1.0     0.941197     0.678445     0.310562    Biso  1.000000 H
   H14         1.0     0.884152     0.365150     0.717303    Biso  1.000000 H
   H15         1.0     0.656707     0.417374     0.859641    Biso  1.000000 H
   H16         1.0     0.650637     0.400816     0.575063    Biso  1.000000 H
   H17         1.0     0.432121     0.852391     0.773426    Biso  1.000000 H
   H18         1.0     0.667199     0.634322     0.385914    Biso  1.000000 H
