
#======================================================================
# CRYSTAL DATA
#----------------------------------------------------------------------
data_VESTA_phase_1

_chemical_name_common                  ''
_cell_length_a                         6.055700
_cell_length_b                         6.688300
_cell_length_c                         5.897600
_cell_angle_alpha                      92.699997
_cell_angle_beta                       90.900002
_cell_angle_gamma                      92.500000
_cell_volume                           238.336567
_space_group_name_H-M_alt              'P 1'
_space_group_IT_number                 1

loop_
_space_group_symop_operation_xyz
   'x, y, z'

loop_
   _atom_site_label
   _atom_site_occupancy
   _atom_site_fract_x
   _atom_site_fract_y
   _atom_site_fract_z
   _atom_site_adp_type
   _atom_site_B_iso_or_equiv
   _atom_site_type_symbol
   C1          1.0     0.738376     0.629145     0.263592    Biso  1.000000 C
   C2          1.0     0.593785     0.290231     0.768652    Biso  1.000000 C
   C3          1.0     0.160343     0.705282     0.800247    Biso  1.000000 C
   N1          1.0     0.361611     0.786260     0.694468    Biso  1.000000 N
   N2          1.0     0.754442     0.843306     0.335267    Biso  1.000000 N
   N3          1.0     0.837758     0.320203     0.760146    Biso  1.000000 N
   O1          1.0     0.708733     0.824484     0.764203    Biso  1.000000 O
   I1          1.0     0.211038     0.236016     0.260917    Biso  1.000000 I
   H1          1.0     0.900880     0.573806     0.248340    Biso  1.000000 H
   H2          1.0     0.653304     0.610456     0.103096    Biso  1.000000 H
   H3          1.0     0.649274     0.547591     0.387276    Biso  1.000000 H
   H4          1.0     0.534192     0.368961     0.915891    Biso  1.000000 H
   H5          1.0     0.551001     0.133833     0.776611    Biso  1.000000 H
   H6          1.0     0.520284     0.346292     0.619587    Biso  1.000000 H
   H7          1.0     0.110475     0.808523     0.931787    Biso  1.000000 H
   H8          1.0     0.193267     0.565047     0.871140    Biso  1.000000 H
   H9          1.0     0.030966     0.683403     0.674716    Biso  1.000000 H
   H10         1.0     0.484942     0.807116     0.814133    Biso  1.000000 H
   H11         1.0     0.330227     0.919940     0.626887    Biso  1.000000 H
   H12         1.0     0.839380     0.921048     0.217362    Biso  1.000000 H
   H13         1.0     0.835537     0.861122     0.488263    Biso  1.000000 H
   H14         1.0     0.907826     0.266760     0.902245    Biso  1.000000 H
   H15         1.0     0.878545     0.469293     0.752557    Biso  1.000000 H
   H16         1.0     0.602614     0.907456     0.340326    Biso  1.000000 H
   H17         1.0     0.902242     0.240790     0.623071    Biso  1.000000 H
   H18         1.0     0.403466     0.686673     0.565888    Biso  1.000000 H
