
#======================================================================
# CRYSTAL DATA
#----------------------------------------------------------------------
data_VESTA_phase_1

_chemical_name_common                  ''
_cell_length_a                         6.055700
_cell_length_b                         6.688300
_cell_length_c                         5.897600
_cell_angle_alpha                      92.699997
_cell_angle_beta                       90.900002
_cell_angle_gamma                      92.500000
_cell_volume                           238.336567
_space_group_name_H-M_alt              'P 1'
_space_group_IT_number                 1

loop_
_space_group_symop_operation_xyz
   'x, y, z'

loop_
   _atom_site_label
   _atom_site_occupancy
   _atom_site_fract_x
   _atom_site_fract_y
   _atom_site_fract_z
   _atom_site_adp_type
   _atom_site_B_iso_or_equiv
   _atom_site_type_symbol
   C1          1.0     0.712600     0.633097     0.216464    Biso  1.000000 C
   C2          1.0     0.589558     0.242410     0.755144    Biso  1.000000 C
   C3          1.0     0.138390     0.710675     0.767502    Biso  1.000000 C
   N1          1.0     0.367789     0.784824     0.734357    Biso  1.000000 N
   N2          1.0     0.770573     0.821431     0.347782    Biso  1.000000 N
   N3          1.0     0.815554     0.336528     0.749440    Biso  1.000000 N
   O1          1.0     0.714156     0.799657     0.751136    Biso  1.000000 O
   I1          1.0     0.215694     0.240676     0.248944    Biso  1.000000 I
   H1          1.0     0.545013     0.634749     0.156572    Biso  1.000000 H
   H2          1.0     0.730682     0.509217     0.322600    Biso  1.000000 H
   H3          1.0     0.820001     0.618548     0.074854    Biso  1.000000 H
   H4          1.0     0.527957     0.212758     0.585302    Biso  1.000000 H
   H5          1.0     0.483228     0.341692     0.843937    Biso  1.000000 H
   H6          1.0     0.594403     0.104862     0.840309    Biso  1.000000 H
   H7          1.0     0.125381     0.552433     0.730242    Biso  1.000000 H
   H8          1.0     0.029868     0.783849     0.656476    Biso  1.000000 H
   H9          1.0     0.093354     0.741898     0.939857    Biso  1.000000 H
   H10         1.0     0.410722     0.755056     0.570056    Biso  1.000000 H
   H11         1.0     0.471241     0.715067     0.840195    Biso  1.000000 H
   H12         1.0     0.668191     0.835299     0.482776    Biso  1.000000 H
   H13         1.0     0.753337     0.939522     0.246608    Biso  1.000000 H
   H14         1.0     0.810933     0.467649     0.668253    Biso  1.000000 H
   H15         1.0     0.916913     0.241884     0.664795    Biso  1.000000 H
   H16         1.0     0.876208     0.365400     0.908428    Biso  1.000000 H
   H17         1.0     0.371092     0.934426     0.769419    Biso  1.000000 H
   H18         1.0     0.929858     0.823203     0.401163    Biso  1.000000 H
