
#======================================================================
# CRYSTAL DATA
#----------------------------------------------------------------------
data_VESTA_phase_1

_chemical_name_common                  ''
_cell_length_a                         6.055700
_cell_length_b                         6.688300
_cell_length_c                         5.897600
_cell_angle_alpha                      92.699997
_cell_angle_beta                       90.900002
_cell_angle_gamma                      92.500000
_cell_volume                           238.336567
_space_group_name_H-M_alt              'P 1'
_space_group_IT_number                 1

loop_
_space_group_symop_operation_xyz
   'x, y, z'

loop_
   _atom_site_label
   _atom_site_occupancy
   _atom_site_fract_x
   _atom_site_fract_y
   _atom_site_fract_z
   _atom_site_adp_type
   _atom_site_B_iso_or_equiv
   _atom_site_type_symbol
   C1          1.0     0.661634     0.787182     0.111054    Biso  1.000000 C
   C2          1.0     0.728062     0.108902     0.687590    Biso  1.000000 C
   C3          1.0     0.186010     0.783047     0.615831    Biso  1.000000 C
   N1          1.0     0.236205     0.749409     0.855562    Biso  1.000000 N
   N2          1.0     0.771333     0.672930     0.283466    Biso  1.000000 N
   N3          1.0     0.646673     0.315430     0.695898    Biso  1.000000 N
   O1          1.0     0.741266     0.675515     0.685796    Biso  1.000000 O
   I1          1.0     0.238962     0.263986     0.189084    Biso  1.000000 I
   H1          1.0     0.775677     0.898733     0.051371    Biso  1.000000 H
   H2          1.0     0.522769     0.858163     0.184068    Biso  1.000000 H
   H3          1.0     0.606507     0.687919    -0.027933    Biso  1.000000 H
   H4          1.0     0.774390     0.068032     0.517883    Biso  1.000000 H
   H5          1.0     0.599929     0.006724     0.739780    Biso  1.000000 H
   H6          1.0     0.868488     0.103203     0.799126    Biso  1.000000 H
   H7          1.0     0.274098     0.680909     0.509711    Biso  1.000000 H
   H8          1.0     0.235214     0.933596     0.579443    Biso  1.000000 H
   H9          1.0     0.012209     0.759100     0.583981    Biso  1.000000 H
   H10         1.0     0.401884     0.772237     0.885923    Biso  1.000000 H
   H11         1.0     0.189301     0.605897     0.890250    Biso  1.000000 H
   H12         1.0     0.823883     0.767555     0.415959    Biso  1.000000 H
   H13         1.0     0.903707     0.605266     0.213863    Biso  1.000000 H
   H14         1.0     0.512810     0.320861     0.589572    Biso  1.000000 H
   H15         1.0     0.768819     0.412833     0.646146    Biso  1.000000 H
   H16         1.0     0.659918     0.563887     0.321859    Biso  1.000000 H
   H17         1.0     0.601195     0.354096     0.855320    Biso  1.000000 H
   H18         1.0     0.154377     0.844635     0.958152    Biso  1.000000 H
